Circuit: * F:\Primer semestre\TEC\Archivos LTSpice\Primer práctico\Circuito del ejercicio 6.asc

Direct Newton iteration for .op point succeeded.

Date: Sat Oct 28 16:07:53 2023
Total elapsed time: 0.145 seconds.

tnom = 27
temp = 27
method = modified trap
totiter = 2085
traniter = 2082
tranpoints = 1042
accept = 1042
rejected = 0
matrix size = 3
fillins = 0
solver = Normal
Avg thread counts: 2.9/4.9/4.9/2.9
Matrix Compiler1: 68 bytes object code size  0.1/0.1/[0.1]
Matrix Compiler2: 175 bytes object code size  0.1/0.1/[0.1]

