Circuit: * D:\Primer semestre\TEC\Archivos LTSpice\Primer práctico\Circuito del ejercicio 7.asc

.OP point found by inspection.

Date: Fri Oct 27 16:24:47 2023
Total elapsed time: 0.173 seconds.

tnom = 27
temp = 27
method = modified trap
totiter = 2260
traniter = 2260
tranpoints = 1131
accept = 1107
rejected = 24
matrix size = 3
fillins = 0
solver = Normal
Avg thread counts: 1.1/1.3/1.3/1.1
Matrix Compiler1:       3 opcodes  0.1/[0.0]/0.1
Matrix Compiler2:      15 opcodes  0.1/[0.1]/0.1

